Circuit: * C:\Users\ingri\workspace\edd-project-grup-dimecres-dc_g_retrovisors\Draft1.asc

Direct Newton iteration for .op point succeeded.

Date: Wed Apr 29 01:33:32 2026
Total elapsed time: 0.037 seconds.

tnom = 27
temp = 27
method = modified trap
totiter = 675
traniter = 672
tranpoints = 335
accept = 282
rejected = 53
matrix size = 5
fillins = 0
solver = Normal
Matrix Compiler1: 96 bytes object code size  0.1/0.0/[0.0]
Matrix Compiler2: 267 bytes object code size  0.0/0.1/[0.0]

