Circuit: * C:\Users\ingri\workspace\edd-project-grup-dimecres-dc_g_retrovisors\sim_sensor_corrent.asc

Direct Newton iteration failed to find .op point.  (Use ".option noopiter" to skip.)
Starting Gmin stepping
Gmin = 10
Gmin = 1.07374
Gmin = 0.115292
Gmin = 0.0123794
Gmin = 0.00132923
Gmin = 0.000142725
Gmin = 1.5325e-005
Gmin = 1.6455e-006
Gmin = 1.76685e-007
Gmin = 1.89714e-008
Gmin = 2.03704e-009
Gmin = 2.18725e-010
Gmin = 2.34854e-011
Gmin = 2.52173e-012
Gmin = 2.70769e-013
Gmin = 0
Gmin stepping succeeded in finding the operating point.


Date: Wed Apr 29 01:13:41 2026
Total elapsed time: 1.352 seconds.

tnom = 27
temp = 27
method = trap
totiter = 200545
traniter = 0
tranpoints = 0
accept = 0
rejected = 0
matrix size = 70
fillins = 82
solver = Normal
Matrix Compiler1:     393 opcodes  1.6/0.8/[0.3]
Matrix Compiler2: 6.98 KB object code size  0.8/1.0/[0.4]

